data/RTE/case6470rte.m
function mpc = case6470rte
%CASE6470RTE
%   AC Power flow data for French system.
%   Please see CASEFORMAT for details on the case file format.
%
%   This case accurately represents the size and complexity of French
%   very high voltage and high voltage transmission network.
%   These data are snapshots of French VHV+HV grid in 2013.
%   These data can be used to validate mathematical methods and tools.
%   These data should NOT be used for operation
%   nor planning of the French or European grids.
%
%   When publishing results using this data, please cite:
%     C. Josz, S. Fliscounakis, J. Maeght, and P. Panciatici,
%     "AC Power Flow Data in MATPOWER and QCQP Format: iTesla, RTE Snapshots, and PEGASE"
%     http://arxiv.org/abs/1603.01533
%
%   Contacts (primary contact for this file : Jean Maeght):
%   Cédric Josz, Stéphane Fliscounakis, Jean Maeght, Patrick Panciatici
%   firstname.lastname@rte-france.com
%   Réseau de Transport d'Electricité (French Transmission System Operator)
%   Département Expertise Système, Immeuble "Le Colbert"
%   9 rue de la Porte de Buc, 78000 Versailles Cedex, France
%   March 4th, 2016

%% MATPOWER Case Format : Version 2
mpc.version = '2';

%%-----  Power Flow Data  -----%%
%% system MVA base
mpc.baseMVA = 100;

%% bus data
%	bus_i	type	Pd	Qd	Gs	Bs	area	Vm	Va	baseKV	zone	Vmax	Vmin
mpc.bus = [
	1	1	0	0	0	0	1	0.976135388	-12.9925873	45	1	1	0.888889;
	2	1	0	0	0	0	1	1.02642799	-12.9259868	63	1	1.06349	0.936508;
	3	1	12.5	-0.7	0	0	1	1.00503432	-13.9209286	63	1	1.07937	0.952381;
	4	1	44.7	-0.9	0	0	1	1.04420421	-12.9960661	90	1	1.08889	0.933333;
	5	1	12	0.1	0	0	1	1.01635584	-44.9251304	63	1	1.06349	0.952381;
	6	1	13	4.3	0	0	1	1.03382845	-21.1593539	63	1	1.07937	0.920635;
	7	1	1.2	0.8	0	0	1	1.04376781	-23.4151063	63	1	1.07937	0.920635;
	8	1	25.8	4.9	0	0	1	1.06137161	-9.10918487	225	1	1.08889	0.888889;
	9	1	12.9	0	0	0	1	1.04218491	-19.692127	63	1	1.06349	0.936508;
	10	1	0	0	0	0	1	1.03392009	-13.0599476	90	1	1.07778	0.922222;
	11	1	28.8	1.1	0	0	1	1.03391987	-13.0599451	90	1	1.07778	0.922222;
	12	1	0	0	0	0	1	1.01220507	1.47719466	63	1	1.07937	0.952381;
	13	1	0	0	0	0	1	1.05892219	-5.04317166	380	1	1.10263	1.05526;
	14	1	51.5	1.9	0	0	1	1.06276649	-23.9178904	90	1	1.07778	0.977778;
	15	1	0	0	0	0	1	1.00803207	-27.2648742	63	1	1.07937	0.920635;
	16	1	13.8	4.1	0	0	1	1.02765775	-30.1822336	63	1	1.07937	0.920635;
	17	1	13.1	0.2	0	0	1	1.04678283	-29.1807443	90	1	1.06667	0.977778;
	18	1	0	0	0	0	1	0.943683152	-6.22055638	45	1	1	0.888889;
	19	1	1	0	0	0	1	1.01840923	-21.4790742	63	1	1.06349	0.936508;
	20	1	0.9	-21.5	0	0	1	0.944675623	-6.25041794	45	1	1	0.888889;
	21	1	8.3	-3.3	0	0	1	1.04078363	-20.286675	90	1	1.06667	0.977778;
	22	1	18	1.1	0	0	1	1.01396605	-11.0956105	63	1	1.07937	0.952381;
	23	1	19.2	3.4	0	0	1	1.01094639	-10.1391831	63	1	1.06349	0.936508;
	24	1	16.1	-1.6	0	0	1	1.04095062	-12.3196454	90	1	1.11111	0.955556;
	25	1	59.9	-3.2	0	0	1	1.07238186	-8.42135007	90	1	1.1	0.944444;
	26	1	35.1	8.1	0	0	1	1.02301673	-21.9672988	90	1	1.06667	0.977778;
	27	1	0	0	0	0	1	1.06710622	-17.5980982	225	1	1.08444	1.00444;
	28	1	0.7	0.2	0	0	1	1.02281412	-19.085163	63	1	1.07937	0.952381;
	29	1	60.1	2.7	0	0	1	1.00764278	-24.8565374	63	1	1.06349	0.968254;
	30	1	33.5	-0.9	0	0	1	1.03465163	-13.1714919	90	1	1.08889	0.933333;
	31	1	0	0	0	0	1	1.02725645	-9.77254236	63	1	1.06349	0.936508;
	32	1	0	0	0	0	1	1.03648765	-4.82385724	150	1	1.10667	0.9;
	33	1	0	0	0	0	1	1.05453305	-7.49488734	225	1	1.08889	0.933333;
	34	1	0	0	0	0	1	1.05382682	-6.60576514	225	1	1.08889	0.933333;
	35	1	0	0	0	0	1	1.07407438	-6.15731397	380	1	1.10526	1.03947;
	36	1	0	0	0	0	1	1.07981196	-5.3255914	380	1	1.10526	1.03947;
	37	1	3.2	4.3	0	0	1	1.00780047	-25.6001306	63	1	1.07937	0.920635;
	38	1	6	-2	0	0	1	1.05045129	-12.5625758	63	1	1.09524	0.936508;
	39	1	41	-3.3	0	0	1	1.03860534	-32.8237834	90	1	1.07778	0.977778;
	40	1	32.6	0.5	0	0	1	1.05927182	-22.0803285	90	1	1.07778	0.977778;
	41	1	0	0	0	0	1	1.07994118	-18.1118321	225	1	1.08889	1.00444;
	42	1	0	0	0	0	1	1.12051301	5.61827836	63	1	1.13259	0.952381;
	43	1	3.6	2	0	0	1	1.04594618	-18.1350668	90	1	1.07778	0.977778;
	44	1	13	-0.7	0	0	1	1.02400675	-45.3164455	63	1	1.06349	0.952381;
	45	1	3.9	1.7	0	0	1	1.00835368	-29.0294852	90	1	1.06667	0.977778;
	46	1	0	0	0	0	1	1.012435	-16.8917768	63	1	1.06349	0.936508;
	47	2	0	0	0	0	1	1.012	-14.645547	63	1	1.06349	0.936508;
	48	1	36.5	3.4	0	0	1	1.03402321	-13.0587867	90	1	1.07778	0.922222;
	49	1	8.8	-1.7	0	0	1	1.01826244	-16.2568862	63	1	1.06349	0.936508;
	50	1	0	0	0	0	1	1.06347625	-15.8365877	63	1	1.07012	0.936508;
	51	1	0	0	0	0	1	1.05402062	-11.3483204	225	1	1.08889	0.933333;
	52	1	5	2.4	0	0	1	1.03592726	-30.7614811	90	1	1.06667	0.977778;
	53	1	2.5	-0.5	0	0	1	1.01729743	-17.5396193	63	1	1.04762	0.952381;
	54	1	-0.4	-0	0	0	1	1.03781665	-15.8046832	90	1	1.06667	0.977778;
	55	1	37.6	6.7	0	0	1	1.06961297	-18.9138109	225	1	1.08889	1.00444;
	56	1	52.1	13.5	0	0	1	1.07717063	-15.4534489	225	1	1.08889	1.00444;
	57	2	0	0	0	0	1	1.051	-23.8130179	63	1	1.07937	0.920635;
	58	1	130.6	30.1	0	0	1	1.06941541	-18.9307534	225	1	1.08889	1.00444;
	59	1	5.1	1.3	0	0	1	1.01246439	-11.9419701	63	1	1.07937	0.952381;
	60	1	0	0	0	0	1	1.02630951	-5.72230685	63	1	1.07937	0.952381;
	61	1	39.5	9.7	0	0	1	1.03149101	-8.27970763	63	1	1.07937	0.952381;
	62	1	0	0	0	0	1	1.01212852	-6.03185941	63	1	1.07937	0.952381;
	63	1	15.8	2	0	0	1	1.01100284	1.57582423	63	1	1.07937	0.952381;
	64	1	62.4	1	0	0	1	1.07394793	-6.81249347	225	1	1.08889	0.888889;
	65	1	11	2.8	0	0	1	1.04323714	-8.83232685	63	1	1.07937	0.952381;
	66	1	13.2	-7.9	0	0	1	1.02766848	-25.721717	63	1	1.06349	0.936508;
	67	1	0	0	0	0	1	1.04382543	-19.3568303	63	1	1.07937	0.920635;
	68	1	48.1	-0.1	0	0	1	1.01281042	-16.3819581	63	1	1.06349	0.936508;
	69	1	19.3	-2.7	0	0	1	1.04103403	-49.3963046	63	1	1.06349	0.952381;
	70	1	10.6	2.7	0	0	1	1.01492751	2.12856808	63	1	1.07937	0.952381;
	71	1	62.4	14.9	0	0	1	1.02703162	-19.7214799	63	1	1.04762	0.952381;
	72	1	0	0	0	0	1	1.08833147	-12.1292789	225	1	1.09027	1.00444;
	73	1	0	0	0	0	1	1.08830871	-12.1298816	225	1	1.09025	1.00444;
	74	1	50.4	-9.9	0	0	1	1.07421562	-6.6908321	225	1	1.08889	0.888889;
	75	1	22.3	1.8	0	0	1	1.05912762	-15.2272137	90	1	1.0673	0.977778;
	76	1	2.6	-0.4	0	0	1	1.07654404	4.81180688	225	1	1.08923	0.986667;
	77	1	36.8	-0.4	0	0	1	1.01721738	-16.1431001	63	1	1.06349	0.936508;
	78	1	0	0	0	0	1	1.01713501	-24.7944396	63	1	1.07937	0.920635;
	79	1	0	0	0	0	1	1.0233287	-15.8525121	63	1	1.04762	0.952381;
	80	1	32.3	7.3	0	0	1	1.07788234	-15.7121296	225	1	1.08889	1.00444;
	81	1	36.3	9.9	0	0	1	1.07789352	-15.712247	225	1	1.08889	1.00444;
	82	1	11.7	1.6	0	0	1	1.01680665	-17.7544069	63	1	1.06349	0.936508;
	83	1	77.5	26.4	0	0	1	1.06117126	-18.1202089	225	1	1.08889	1.00444;
	84	1	-1.6	-1.2	0	0	1	1.01460966	-12.8551684	63	1	1.06349	0.936508;
	85	1	2.1	-2.1	0	0	1	1.03363532	-18.6243809	63	1	1.06349	0.936508;
	86	1	48.9	3.6	0	0	1	1.02064907	-38.6021117	90	1	1.06667	0.977778;
	87	1	0	0	0	0	1	1.0187645	1.31447041	63	1	1.07937	0.952381;
	88	1	13.5	-0.1	0	0	1	1.01592598	-21.6956546	63	1	1.06349	0.936508;
	89	1	25.4	0.8	0	0	1	1.0379702	-20.8685881	90	1	1.07778	0.977778;
	90	1	0.4	-1.4	0	0	1	0.94224878	-7.00763458	45	1	1	0.888889;
	91	1	1	0	0	0	1	0.943074714	-6.30480653	45	1	1	0.888889;
	92	1	28.6	3.2	0	0	1	1.00978629	-20.3740289	63	1	1.06349	0.968254;
	93	1	2.1	-2.5	0	0	1	0.958656574	-8.71727433	45	1	1	0.888889;
	94	1	17.5	-4.3	0	0	1	1.04379161	-19.7217298	90	1	1.06667	0.977778;
	95	1	46.5	7.6	0	0	1	1.0312211	-30.4840468	90	1	1.06667	0.977778;
	96	1	1.5	-0.7	0	0	1	1.03788872	-11.0788409	63	1	1.06349	0.936508;
	97	1	56.4	0.9	0	0	1	1.06437655	-25.7421539	63	1	1.07937	0.920635;
	98	1	7.4	-1.3	0	0	1	1.03837053	-15.4142215	63	1	1.07937	0.952381;
	99	1	26.9	3.1	0	0	1	1.03969161	-7.84708686	63	1	1.07937	0.952381;
	100	1	53.3	8.6	0	0	1	1.00974165	-16.7738896	63	1	1.06349	0.936508;
	101	1	17.7	0.5	0	0	1	1.0068471	-13.2748505	63	1	1.06349	0.936508;
	102	2	0	0	0	0	1	1.026	-20.4664045	63	1	1.07937	0.952381;
	103	1	18	-1.1	0	0	1	1.02700008	-6.46512627	63	1	1.07937	0.952381;
	104	1	0	0	0	0	1	1.06764508	-3.66034483	225	1	1.08889	0.986667;
	105	1	35.5	1	0	0	1	1.05574625	-6.19441787	225	1	1.08889	0.888889;
	106	1	49.8	7.5	0	0	1	1.0549998	-10.3125909	90	1	1.1	0.944444;
	107	1	77.6	8.1	0	0	1	1.05344295	-27.9027225	225	1	1.08444	1.00889;
	108	1	12.6	-0.4	0	0	1	1.06089799	-15.8485362	90	1	1.07778	0.977778;
	109	1	68.7	10.9	0	0	1	1.03797039	-14.4512355	63	1	1.06349	0.936508;
	110	1	0	0	0	0	1	1.02483778	-10.3393883	225	1	1.08889	0.933333;
	111	1	36.5	-7.9	0	0	1	1.00464656	-23.2310562	63	1	1.06349	0.968254;
	112	1	0	0	0	0	1	1.03104172	-19.4769398	63	1	1.04762	0.952381;
	113	1	0	0	0	0	1	1.07137239	-16.7086828	225	1	1.08889	1.00444;
	114	1	10.8	-0	0	0	1	1.04131933	-14.515794	63	1	1.06349	0.936508;
	115	1	0	0	0	0	1	1.05906621	-5.0444808	380	1	1.10526	1.05263;
	116	1	0	0	0	0	1	1.05893137	-5.04325504	380	1	1.10526	1.05263;
	117	1	15.4	-1	0	0	1	1.01177151	-18.5010626	63	1	1.07937	0.952381;
	118	1	2	0.8	0	0	1	1.06140338	-14.9568759	90	1	1.06958	0.977778;
	119	1	37.2	5.3	0	0	1	1.02092431	-10.2131994	63	1	1.06349	0.936508;
	120	1	17	-3.2	0	0	1	1.01794152	-9.19529036	63	1	1.06349	0.936508;
	121	1	17.6	3.9	0	0	1	1.02798357	-24.462783	63	1	1.07937	0.920635;
	122	2	0	0	0	0	1	1.026	-7.07848147	63	1	1.07937	0.952381;
	123	1	9	2.6	0	0	1	1.02435037	-7.22045701	63	1	1.07937	0.952381;
	124	1	8	-0.9	0	0	1	1.03707848	-25.0946664	90	1	1.06667	0.977778;
	125	1	10.5	-0.5	0	0	1	1.03689507	-9.8309822	63	1	1.07937	0.952381;
	126	1	0.3	-0.1	0	0	1	1.02949319	-19.3051119	63	1	1.06349	0.936508;
	127	1	7.8	1.5	0	0	1	1.03397146	-19.3369693	63	1	1.04762	0.952381;
	128	1	11.8	7.6	0	0	1	1.02461147	-12.4220533	63	1	1.06349	0.968254;
	129	1	16.7	11.8	0	0	1	1.02325264	-10.6875588	63	1	1.06349	0.968254;
	130	1	0	0	0	0	1	1.04822415	-10.3292151	225	1	1.08444	1.00889;
	131	1	103	13.6	0	0	1	1.04604879	-19.0300309	225	1	1.08444	1.00889;
	132	2	11.5	0	0	0	1	1.065	-22.1212095	90	1	1.07778	0.922222;
	133	1	2.1	0.5	0	0	1	1.01877743	-19.1629109	63	1	1.04762	0.952381;
	134	1	83.5	23.6	0	0	1	1.06237023	-16.5704975	225	1	1.08889	1.00444;
	135	1	0	0	0	0	1	1.07000739	-18.7730983	225	1	1.08889	1.00444;
	136	1	21.9	-0.2	0	0	1	1.04427034	-29.9688968	90	1	1.07778	0.977778;
	137	2	9.6	-4.4	0	0	1	1.032	-17.2080894	63	1	1.06349	0.968254;
	138	1	0	0	0	0	1	1.03902059	-14.7661854	150	1	1.08	0.966667;
	139	1	15.7	2.2	0	0	1	1.05095521	-19.5598296	63	1	1.07937	0.920635;
	140	1	0	0	0	80	1	1.08235205	-16.4504327	225	1	1.08889	1;
	141	1	0	0	0	0	1	1.08918012	-13.1901619	380	1	1.10526	1.05263;
	142	1	14.8	5.8	0	0	1	1.01633355	-11.5272029	63	1	1.07937	0.952381;
	143	1	0	0	0	0	1	1.06497066	-7.36988358	225	1	1.08889	0.986667;
	144	1	23.3	-10.3	0	0	1	1.04710595	-10.8088189	90	1	1.11111	0.955556;
	145	1	27.6	5.9	0	0	1	1.07498756	-6.54824762	225	1	1.08889	0.968889;
	146	1	0	0	0	0	1	1.082892	-4.02229346	380	1	1.10526	1;
	147	1	29	5.5	0	0	1	1.03903903	-15.2683972	63	1	1.06349	0.936508;
	148	1	6.7	2.4	0	0	1	1.02578801	-13.8079977	63	1	1.06349	0.936508;
	149	1	17.9	6.1	0	0	1	1.04300695	-30.1906078	90	1	1.06667	0.977778;
	150	1	44.5	6.4	0	0	1	1.02466218	-10.2265779	63	1	1.06349	0.936508;
	151	1	0	0	0	0	1	0.988179896	-26.921708	63	1	1.06349	0.968254;
	152	1	38.3	8.8	0	7.7	1	0.988026042	-25.6502451	63	1	1.06349	0.968254;
	153	1	23.2	-2.6	0	0	1	1.03360067	-13.5219696	63	1	1.06349	0.936508;
	154	1	0	0	0	0	1	1.06485541	-9.84131996	225	1	1.08889	0.933333;
	155	2	0	0	0	0	1	0.973059153	-24.3963974	63	1	1.07937	0.920635;
	156	1	0	0	0	0	1	0.988140868	-26.9246626	63	1	1.06349	0.968254;
	157	1	0.3	3.1	0	0	1	0.898621813	-8.80299203	45	1	1	0.888889;
	158	2	0	0	0	0	1	0.947	-10.3100044	45	1	1	0.888889;
	159	1	0	0	0	0	1	1.00924769	-12.5289984	63	1	1.06349	0.936508;
	160	1	35.2	5.6	0	0	1	1.06355817	-4.61684596	225	1	1.08889	0.888889;
	161	1	38.2	8.7	0	0	1	1.06341169	-4.62290462	225	1	1.08889	0.888889;
	162	1	0.7	-1.4	0	0	1	1.02526511	-18.2541106	90	1	1.06667	0.977778;
	163	1	0	0	0	0	1	1.02136691	-6.22432606	63	1	1.07937	0.952381;
	164	1	0	0	0	0	1	1.02136691	-6.22432606	63	1	1.07937	0.952381;
	165	1	16.7	9.2	0	0	1	1.06958649	-25.1648491	20	1	1.15	0.8;
	166	1	10.1	2.4	0	0	1	1.04218915	-29.5709908	90	1	1.06667	0.977778;
	167	1	13.6	0.6	0	0	1	1.03463882	-29.8876265	90	1	1.06667	0.977778;
	168	1	0	0	0	0	1	1.06967074	-25.1582215	225	1	1.08444	1.00444;
	169	1	10.8	-1	0	0	1	1.02635835	-27.5129079	90	1	1.06667	0.977778;
	170	1	70.4	11.6	0	0	1	1.04989447	-21.25518	90	1	1.07778	0.977778;
	171	1	26.5	-0.4	0	0	1	1.04571799	-23.921678	90	1	1.07778	0.977778;
	172	1	0	0	0	0	1	1.06465854	-19.8892662	225	1	1.08889	1.00444;
	173	1	27.7	8.5	0	0	1	1.06990619	-6.73343649	90	1	1.08889	0.933333;
	174	1	47.4	4.6	0	0	1	1.06578124	-11.2728218	90	1	1.11111	0.955556;
	175	1	0	0	0	0	1	1.00313316	-23.0001881	63	1	1.07937	0.920635;
	176	1	0	0	0	0	1	1.01288102	-20.7011782	63	1	1.07937	0.920635;
	177	2	0	0	0	0	1	1.07314468	-17.8713404	150	1	1.1	0.9;
	178	1	0	0	0	0	1	1.0830725	-16.2722384	225	1	1.08889	1.00444;
	179	1	0	0	0	0	1	1.08307272	-16.2722396	225	1	1.08889	1.00444;
	180	1	0	0	0	-32	1	1.00374216	-19.4961422	20	1	1.15	0.8;
	181	1	0	0	0	-32	1	1.02635302	-19.4481365	20	1	1.15	0.8;
	182	1	0	0	0	0	1	1.03407596	-19.3298098	63	1	1.04762	0.952381;
	183	1	0	0	0	0	1	1.0830712	-16.2722314	225	1	1.08889	1.00444;
	184	1	12.9	-4.6	0	0	1	1.04803579	-26.3070703	63	1	1.07937	0.920635;
	185	1	16	3.1	0	0	1	1.03138099	-10.647407	63	1	1.06349	0.936508;
	186	1	4.8	-0.4	0	0	1	1.01592709	-15.4110518	63	1	1.07937	0.952381;
	187	1	5	1.4	0	0	1	1.06702478	-18.5901086	90	1	1.07778	0.977778;
	188	1	28.7	4	0	0	1	1.00764362	-12.3640743	63	1	1.07937	0.952381;
	189	1	1.1	0.3	0	0	1	1.02544485	-17.5610238	90	1	1.06667	0.977778;
	190	2	0	0	0	0	1	1.02526044	-24.3142213	63	1	1.07937	0.920635;
	191	1	16.2	1.6	0	0	1	1.02786229	-23.8127607	63	1	1.07937	0.920635;
	192	2	0	0	0	0	1	0.948167592	-8.50646106	45	1	1	0.888889;
	193	1	13.8	-0.3	0	0	1	1.02865291	-27.5568671	90	1	1.06667	0.977778;
	194	1	7.4	-1.5	0	0	1	1.04988634	-24.3324955	63	1	1.07937	0.920635;
	195	1	7.9	4.8	0	0	1	1.07074605	-17.1657151	225	1	1.08889	1.00444;
	196	2	1	-0.3	0	0	1	1.037	-25.5274656	63	1	1.07937	0.920635;
	197	1	0	0	0	0	1	1.08972445	-16.6406808	63	1	1.09837	0.952381;
	198	1	0	0	0	0	1	1.08972593	-16.6407234	63	1	1.09837	0.952381;
	199	1	24.4	1.2	0	0	1	1.01120807	-29.4239285	63	1	1.07937	0.920635;
	200	1	9.3	-2.7	0	0	1	1.02943998	-25.1599728	63	1	1.07937	0.920635;
...
];

%% generator data
%	bus	Pg	Qg	Qmax	Qmin	Vg	mBase	status	Pmax	Pmin	Pc1	Pc2	Qc1min	Qc1max	Qc2min	Qc2max	ramp_agc	ramp_10	ramp_30	ramp_q	apf
mpc.gen = [
	4	0	0	0	0	1.045	100	0	12	0	0	0	0	0	0	0	0	0	0	0	0;
	4	0	0	0	0	1.045	100	0	10	0	0	0	0	0	0	0	0	0	0	0	0;
	5	6.05	0	0	0	1.017	100	1	9.1	0	0	0	0	0	0	0	0	0	0	0	0;
	11	0	0	0	0	1.035	100	0	28	0	0	0	0	0	0	0	0	0	0	0	0;
	11	0	0	0	0	1.035	100	0	18	0	0	0	0	0	0	0	0	0	0	0	0;
	17	1.22	0	0	0	1.049	100	1	8.2	0	0	0	0	0	0	0	0	0	0	0	0;
	19	0	0	0	0	1.02	100	0	1.2	0	0	0	0	0	0	0	0	0	0	0	0;
	22	0	0	0	0	1.013	100	0	10	0	0	0	0	0	0	0	0	0	0	0	0;
	24	0	0	0	0	1.042	100	0	16.1	0	0	0	0	0	0	0	0	0	0	0	0;
	24	0.18	0	0	0	1.042	100	1	35.5	0	0	0	0	0	0	0	0	0	0	0	0;
	25	3.21	0	0	0	1.074	100	1	36	0	0	0	0	0	0	0	0	0	0	0	0;
	25	0	0	0	0	1.074	100	0	27.2	0	0	0	0	0	0	0	0	0	0	0	0;
	40	0	0	0	0	1.063	100	0	8	0	0	0	0	0	0	0	0	0	0	0	0;
	47	9.47	-5.96	9.5	-9.5	1.012	100	1	16	0	0	0	0	0	0	0	0	0	0	0	0;
	47	0	-1.81	9.5	-9.5	1.012	100	0	16	0	0	0	0	0	0	0	0	0	0	0	0;
	48	2.17	0	0	0	1.035	100	1	23	0	0	0	0	0	0	0	0	0	0	0	0;
	48	1.17	0	0	0	1.035	100	1	24	0	0	0	0	0	0	0	0	0	0	0	0;
	57	0	1	1	0.9	1.051	100	1	13	0	0	0	0	0	0	0	0	0	0	0	0;
	64	0	0	0	0	1.075	100	0	24	0	0	0	0	0	0	0	0	0	0	0	0;
	64	1.19	0	0	0	1.075	100	1	27.6	0	0	0	0	0	0	0	0	0	0	0	0;
	69	7.25	0	0	0	1.042	100	1	30.04	0	0	0	0	0	0	0	0	0	0	0	0;
	70	3.27	0	0	0	1.015	100	1	23	0	0	0	0	0	0	0	0	0	0	0	0;
	85	0	0	0	0	1.034	100	0	6.68	0	0	0	0	0	0	0	0	0	0	0	0;
	86	2.76	0	0	0	1.021	100	1	9.2	0	0	0	0	0	0	0	0	0	0	0	0;
	102	19.07	-3.5	21	-9	1.026	100	1	46	0	0	0	0	0	0	0	0	0	0	0	0;
	122	7.97	-1.18	5	-2	1.026	100	1	12	0	0	0	0	0	0	0	0	0	0	0	0;
	124	1.36	0	0	0	1.038	100	1	9	0	0	0	0	0	0	0	0	0	0	0	0;
	125	6.12	0	0	0	1.037	100	1	26	0	0	0	0	0	0	0	0	0	0	0	0;
	125	1.12	0	0	0	1.037	100	1	12	0	0	0	0	0	0	0	0	0	0	0	0;
	132	7.12	1.99	3	-3	1.065	100	1	17	0	0	0	0	0	0	0	0	0	0	0	0;
	132	0	1	1	-1	1.065	100	0	4	0	0	0	0	0	0	0	0	0	0	0	0;
	132	0	1.99	3	-3	1.065	100	0	14	0	0	0	0	0	0	0	0	0	0	0	0;
	132	0	1.99	3	-3	1.065	100	0	14	0	0	0	0	0	0	0	0	0	0	0	0;
	137	0	-0.57	0.8	-0.8	1.032	100	0	18	0	0	0	0	0	0	0	0	0	0	0	0;
	137	4	-0.8	0.8	-0.8	1.032	100	1	18	0	0	0	0	0	0	0	0	0	0	0	0;
	155	0	-1.75	1.76	-1.76	0.971	100	0	5.3	0	0	0	0	0	0	0	0	0	0	0	0;
	158	7.05	1.44	10	-13	0.947	100	1	17.9	0	0	0	0	0	0	0	0	0	0	0	0;
	158	0	-2.57	10	-13	0.947	100	0	17.9	0	0	0	0	0	0	0	0	0	0	0	0;
	177	0	-1.56	10	-4	1.073	100	0	30	0	0	0	0	0	0	0	0	0	0	0	0;
	190	0	-1.41	8	-8	1.009	100	0	11	0	0	0	0	0	0	0	0	0	0	0	0;
	190	0	-1.41	2	-2	1.009	100	0	11	0	0	0	0	0	0	0	0	0	0	0	0;
	192	0	-2.63	14	-14	0.939	100	0	30	0	0	0	0	0	0	0	0	0	0	0	0;
	194	0	0	0	0	1.05	100	0	23.5	0	0	0	0	0	0	0	0	0	0	0	0;
	196	2.44	0.9	1	0.9	1.037	100	1	15	0	0	0	0	0	0	0	0	0	0	0	0;
	196	2.44	0.9	1	0.9	1.037	100	1	15	0	0	0	0	0	0	0	0	0	0	0	0;
	219	1.46	0	0	0	1.016	100	1	11.94	0	0	0	0	0	0	0	0	0	0	0	0;
	226	0	0	2	0	1.073	100	0	6	0	0	0	0	0	0	0	0	0	0	0	0;
	229	3.17	0	0	0	1.025	100	1	7.5	0	0	0	0	0	0	0	0	0	0	0	0;
	238	1.2	0	0	0	1.047	100	1	33.5	0	0	0	0	0	0	0	0	0	0	0	0;
	238	0.2	0	0	0	1.047	100	1	24.3	0	0	0	0	0	0	0	0	0	0	0	0;
	240	0	0	0	0	1.022	100	0	8	0	0	0	0	0	0	0	0	0	0	0	0;
	240	6.28	0	0	0	1.022	100	1	36	0	0	0	0	0	0	0	0	0	0	0	0;
	248	0	0	2	0	0.976	100	0	1	0	0	0	0	0	0	0	0	0	0	0	0;
	248	0	-2.77	10	-10	0.976	100	0	31	0	0	0	0	0	0	0	0	0	0	0	0;
	248	0	-2.77	10	-10	0.976	100	0	31	0	0	0	0	0	0	0	0	0	0	0	0;
	248	0	-2.77	10	-10	0.976	100	0	31	0	0	0	0	0	0	0	0	0	0	0	0;
	258	0	-1.94	10	-10	1.031	100	0	26	0	0	0	0	0	0	0	0	0	0	0	0;
	258	0	0.23	10	-10	1.031	100	0	26	0	0	0	0	0	0	0	0	0	0	0	0;
	260	27.18	1	1	0.9	1.071	100	1	30	0	0	0	0	0	0	0	0	0	0	0	0;
	263	3.85	-0.6	4	-4	0.998	100	1	8	0	0	0	0	0	0	0	0	0	0	0	0;
	271	0	0	0	0	0.997	100	0	12.6	0	0	0	0	0	0	0	0	0	0	0	0;
	284	0	-2.78	6.1	-6.2	0.975	100	0	11.6	0	0	0	0	0	0	0	0	0	0	0	0;
	297	0	0	0	0	1.064	100	0	25.3	0	0	0	0	0	0	0	0	0	0	0	0;
	298	0	0	0	0	1.014	100	0	12	0	0	0	0	0	0	0	0	0	0	0	0;
	307	1.12	-6.48	9	-9	1.038	100	1	15	0	0	0	0	0	0	0	0	0	0	0	0;
	314	7.16	0	0	0	1.032	100	1	25.8	0	0	0	0	0	0	0	0	0	0	0	0;
	314	18.16	0	0	0	1.032	100	1	49.6	0	0	0	0	0	0	0	0	0	0	0	0;
	319	0	0	0	0	1.05	100	0	0	-7	0	0	0	0	0	0	0	0	0	0	0;
	319	0	0	0	0	1.05	100	0	0	-7	0	0	0	0	0	0	0	0	0	0	0;
	321	4.8	-0.1	0.1	-0.1	1.042	100	1	10.8	0	0	0	0	0	0	0	0	0	0	0	0;
	327	0	-0.57	4	-4	1.023	100	0	11	0	0	0	0	0	0	0	0	0	0	0	0;
	334	0	0.13	13	-9	1.028	100	0	25	0	0	0	0	0	0	0	0	0	0	0	0;
	335	2.11	2.07	13	-9	1.037	100	1	25	0	0	0	0	0	0	0	0	0	0	0	0;
	338	9.13	-0.33	5	-6	1.013	100	1	13	0	0	0	0	0	0	0	0	0	0	0	0;
	340	0	-1.82	10	-10	1.034	100	0	21	0	0	0	0	0	0	0	0	0	0	0	0;
	340	0	-0.1	0.1	-0.1	1.034	100	0	2	0	0	0	0	0	0	0	0	0	0	0	0;
	347	0	0	0	0	1.057	100	0	2.3	0	0	0	0	0	0	0	0	0	0	0	0;
	347	15.24	0	0	0	1.057	100	1	19.5	0	0	0	0	0	0	0	0	0	0	0	0;
	350	0	0	0	0	1.058	100	0	22	0	0	0	0	0	0	0	0	0	0	0	0;
	358	0	1.84	30	-30	1.027	100	0	30	0	0	0	0	0	0	0	0	0	0	0	0;
	359	1.97	0	0	0	1.001	100	1	12	0	0	0	0	0	0	0	0	0	0	0	0;
	359	2.97	0	0	0	1.001	100	1	12	0	0	0	0	0	0	0	0	0	0	0	0;
	366	127.22	8.45	59	-26	1.078	100	1	130	0	0	0	0	0	0	0	0	0	0	0	0;
	393	0	0	0	0	1.006	100	0	2.7	0	0	0	0	0	0	0	0	0	0	0	0;
	412	1.4	0	0	0	1.026	100	1	10	0	0	0	0	0	0	0	0	0	0	0	0;
	412	1.4	0	0	0	1.026	100	1	11.5	0	0	0	0	0	0	0	0	0	0	0	0;
	432	0	0	0	0	1.047	100	0	12	0	0	0	0	0	0	0	0	0	0	0	0;
	441	0	1.33	10.96	-11.99	1.023	100	0	34.25	0	0	0	0	0	0	0	0	0	0	0	0;
	448	0	0.71	8	-9	0.992	100	0	25	0	0	0	0	0	0	0	0	0	0	0	0;
	463	0	0	0	0	1.013	100	0	2.4	0	0	0	0	0	0	0	0	0	0	0	0;
	463	3.21	0	0	0	1.013	100	1	16	0	0	0	0	0	0	0	0	0	0	0	0;
	465	7.19	0.74	6	-3	1.171	100	1	27	1	0	0	0	0	0	0	0	0	0	0	0;
	465	7.19	0.74	6	-3	1.171	100	1	27	1	0	0	0	0	0	0	0	0	0	0	0;
	467	42.78	10.85	19	-10	1.042	100	1	48	1	0	0	0	0	0	0	0	0	0	0	0;
	471	0	-2.86	6	-6	1.035	100	0	10	0	0	0	0	0	0	0	0	0	0	0	0;
	471	0	-5.4	5.4	-5.4	1.035	100	0	9	0	0	0	0	0	0	0	0	0	0	0	0;
	480	0	-2.66	17	-16	0.982	100	0	27	0	0	0	0	0	0	0	0	0	0	0	0;
	480	0	-2.66	17	-16	0.982	100	0	27	0	0	0	0	0	0	0	0	0	0	0	0;
	480	0	-2.66	17	-16	0.982	100	0	27	0	0	0	0	0	0	0	0	0	0	0	0;
	492	0	-0.74	8	-17	1.055	100	0	23.4	0	0	0	0	0	0	0	0	0	0	0	0;
	509	0	0.34	2	-2	1.002	100	0	4	0	0	0	0	0	0	0	0	0	0	0	0;
	518	0	0	0	0	1	100	0	10	0	0	0	0	0	0	0	0	0	0	0	0;
	519	8.33	0	0	0	1.035	100	1	12	0	0	0	0	0	0	0	0	0	0	0	0;
	529	0	-1.62	4.8	-4.8	1.017	100	0	8	0	0	0	0	0	0	0	0	0	0	0	0;
	529	0	-1.62	4.8	-4.8	1.017	100	0	8	0	0	0	0	0	0	0	0	0	0	0	0;
	529	1.95	-1.62	4.8	-4.8	1.017	100	1	8	0	0	0	0	0	0	0	0	0	0	0	0;
	535	0.28	0	0	0	1.014	100	1	12	0	0	0	0	0	0	0	0	0	0	0	0;
	535	4.28	0	0	0	1.014	100	1	24	0	0	0	0	0	0	0	0	0	0	0	0;
	544	1.22	1.9	2	1.9	1	100	1	9	0	0	0	0	0	0	0	0	0	0	0	0;
	547	0	0	2	0	0.984	100	0	12	0	0	0	0	0	0	0	0	0	0	0	0;
	569	2.23	0	0	0	1.006	100	1	12	0	0	0	0	0	0	0	0	0	0	0	0;
	569	12.23	0	0	0	1.006	100	1	30	0	0	0	0	0	0	0	0	0	0	0	0;
	569	5.23	0	0	0	1.006	100	1	11.5	0	0	0	0	0	0	0	0	0	0	0	0;
	582	4.38	2.76	7	-4	1.029	100	1	16	0	0	0	0	0	0	0	0	0	0	0	0;
	584	0.16	0	0	0	0.993	100	1	9	0	0	0	0	0	0	0	0	0	0	0	0;
	585	1.04	0.5	5.7	-5.7	1.01	100	1	9.5	0	0	0	0	0	0	0	0	0	0	0	0;
	588	0	0.1	0.1	-0.1	1.029	100	0	1	0	0	0	0	0	0	0	0	0	0	0	0;
	592	0	0.82	10	-10	1.012	100	0	21	0	0	0	0	0	0	0	0	0	0	0	0;
	599	0	0.03	1	-1	1.026	100	0	6.1	0	0	0	0	0	0	0	0	0	0	0	0;
	609	41.38	-4.32	45	-45	1.02	100	1	45	0	0	0	0	0	0	0	0	0	0	0	0;
	609	0	-1.04	45	-45	1.02	100	0	45	0	0	0	0	0	0	0	0	0	0	0	0;
	611	3.39	0	0	0	1.01	100	1	12	0	0	0	0	0	0	0	0	0	0	0	0;
	611	3.39	0	0	0	1.01	100	1	12	0	0	0	0	0	0	0	0	0	0	0	0;
	611	3.39	0	0	0	1.01	100	1	12	0	0	0	0	0	0	0	0	0	0	0	0;
	612	2.14	0	0	0	1.012	100	1	35	0	0	0	0	0	0	0	0	0	0	0	0;
	612	0	0	0	0	1.012	100	0	11.5	0	0	0	0	0	0	0	0	0	0	0	0;
	623	-2.11	-8.3	8.3	-8.3	1.049	100	1	8.3	-8.3	0	0	0	0	0	0	0	0	0	0	0;
	632	0	2.76	4	-4	1.026	100	0	7.3	0	0	0	0	0	0	0	0	0	0	0	0;
	635	0	0.91	7	0	1.011	100	0	15	0	0	0	0	0	0	0	0	0	0	0	0;
	635	4.02	4.91	7	0	1.011	100	1	15	0	0	0	0	0	0	0	0	0	0	0	0;
	640	94.82	-101.18	80	-102.8	1.083	100	1	239	0	0	0	0	0	0	0	0	0	0	0	0;
	651	0	1.38	7	0	1.064	100	0	7	0	0	0	0	0	0	0	0	0	0	0	0;
	669	3.19	0	0	0	1.033	100	1	12	0	0	0	0	0	0	0	0	0	0	0	0;
	669	3.19	0	0	0	1.033	100	1	12	0	0	0	0	0	0	0	0	0	0	0	0;
	670	3.25	0	0	0	1.053	100	1	7.5	0	0	0	0	0	0	0	0	0	0	0	0;
	670	14.25	0	0	0	1.053	100	1	24	0	0	0	0	0	0	0	0	0	0	0	0;
	678	0	0	0	0	1.011	100	0	6.6	0	0	0	0	0	0	0	0	0	0	0	0;
	679	0.12	0	0	0	1.059	100	1	12	0	0	0	0	0	0	0	0	0	0	0	0;
	683	4.2	-2.58	6	-5	0.89	100	1	9	0	0	0	0	0	0	0	0	0	0	0	0;
	683	4.2	-2.58	6	-5	0.89	100	1	9	0	0	0	0	0	0	0	0	0	0	0	0;
	683	0	-2.58	8	-5	0.89	100	0	11	0	0	0	0	0	0	0	0	0	0	0	0;
	683	4.2	-2.58	8	-5	0.89	100	1	11	0	0	0	0	0	0	0	0	0	0	0	0;
	694	16.2	0	0	0	1.055	100	1	32.35	0	0	0	0	0	0	0	0	0	0	0	0;
	694	1.2	0	0	0	1.055	100	1	12	0	0	0	0	0	0	0	0	0	0	0	0;
	694	7.2	0	0	0	1.055	100	1	21	0	0	0	0	0	0	0	0	0	0	0	0;
	698	31.61	-7.06	15	-17	1.02	100	1	37	0	0	0	0	0	0	0	0	0	0	0	0;
	698	30.63	-7.06	15	-17	1.02	100	1	37	0	0	0	0	0	0	0	0	0	0	0	0;
	697	32.52	-7.35	15	-15	1.02	100	1	37	0	0	0	0	0	0	0	0	0	0	0	0;
	697	29.5	-7.35	15	-15	1.02	100	1	37	0	0	0	0	0	0	0	0	0	0	0	0;
	696	31.51	-5.32	15	-17	1.023	100	1	37	0	0	0	0	0	0	0	0	0	0	0	0;
	696	31.51	-5.32	15	-17	1.023	100	1	37	0	0	0	0	0	0	0	0	0	0	0	0;
	704	1.17	-0.66	2	-2	0.896	100	1	4	0	0	0	0	0	0	0	0	0	0	0	0;
	704	1.17	-0.16	2.5	-2.5	0.896	100	1	4	0	0	0	0	0	0	0	0	0	0	0	0;
	704	2.87	0.34	3	-3	0.896	100	1	5.7	0	0	0	0	0	0	0	0	0	0	0	0;
	704	0	-2.66	6	-5	0.896	100	0	8.5	0	0	0	0	0	0	0	0	0	0	0	0;
	731	16.79	0	0	0	1.044	100	1	19.5	0	0	0	0	0	0	0	0	0	0	0	0;
	732	27.31	-2.16	18	-18	0.977	100	1	39	0	0	0	0	0	0	0	0	0	0	0	0;
	733	1.1	0	0	0	1.004	100	1	11.5	0	0	0	0	0	0	0	0	0	0	0	0;
	733	2.1	0	0	0	1.004	100	1	32	0	0	0	0	0	0	0	0	0	0	0	0;
	735	0	0	0	0	1.051	100	0	12	0	0	0	0	0	0	0	0	0	0	0	0;
	735	7.19	0	0	0	1.051	100	1	32	0	0	0	0	0	0	0	0	0	0	0	0;
	736	0.46	0.1	0.1	-0.1	1.032	100	1	5	0	0	0	0	0	0	0	0	0	0	0	0;
	743	3.56	2.67	3.72	-3.7	0.983	100	1	6.7	0	0	0	0	0	0	0	0	0	0	0	0;
	743	2.65	1.95	3	-3	0.983	100	1	5.6	0	0	0	0	0	0	0	0	0	0	0	0;
	744	3.25	-19.76	15	-19.76	0.975	100	1	26.6	0	0	0	0	0	0	0	0	0	0	0	0;
	745	4.6	2	2	-2	1.011	100	1	7	1	0	0	0	0	0	0	0	0	0	0	0;
	750	0	-2.78	3	-3	0.975	100	0	5	-5	0	0	0	0	0	0	0	0	0	0	0;
	757	0	1.81	8	-8	1.068	100	0	23.5	0	0	0	0	0	0	0	0	0	0	0	0;
	759	0	0	0	0	1.037	100	0	6	0	0	0	0	0	0	0	0	0	0	0	0;
	760	0	0	0	0	1.035	100	0	6	0	0	0	0	0	0	0	0	0	0	0	0;
	759	16.11	-5.86	10	-6	1.037	100	1	37.5	0	0	0	0	0	0	0	0	0	0	0	0;
	760	15.44	-2.51	10	-6	1.035	100	1	37.5	0	0	0	0	0	0	0	0	0	0	0	0;
	761	0	0.06	0.06	-0.06	0.596	100	0	0.6	0	0	0	0	0	0	0	0	0	0	0	0;
	761	0.91	2.61	2.61	-2.61	0.596	100	1	26.1	0	0	0	0	0	0	0	0	0	0	0	0;
	761	0	0.16	0.16	-0.16	0.596	100	0	1.6	0	0	0	0	0	0	0	0	0	0	0	0;
	761	0	0.11	0.11	-0.11	0.596	100	0	1.1	0	0	0	0	0	0	0	0	0	0	0	0;
	765	0	0	0	0	1.02	100	0	37.5	0	0	0	0	0	0	0	0	0	0	0	0;
	765	0.16	0	0	0	1.02	100	1	34	0	0	0	0	0	0	0	0	0	0	0	0;
	785	0	-0.29	26	-26	1.004	100	0	8	0	0	0	0	0	0	0	0	0	0	0	0;
	785	0	-0.29	26	-26	1.004	100	0	15	0	0	0	0	0	0	0	0	0	0	0	0;
	786	0	-0.33	26	-26	1.009	100	0	19	0	0	0	0	0	0	0	0	0	0	0	0;
	800	25.57	-7.03	15	-17	1.02	100	1	31	0	0	0	0	0	0	0	0	0	0	0	0;
	800	26.55	-7.03	15	-17	1.02	100	1	31	0	0	0	0	0	0	0	0	0	0	0	0;
	801	26.91	-5.94	15	-17	1.022	100	1	31	0	0	0	0	0	0	0	0	0	0	0	0;
	801	26.91	-5.94	15	-17	1.022	100	1	31	0	0	0	0	0	0	0	0	0	0	0	0;
	802	25.92	-6.45	15	-17	1.021	100	1	31	0	0	0	0	0	0	0	0	0	0	0	0;
	802	26.91	-6.45	15	-17	1.021	100	1	31	0	0	0	0	0	0	0	0	0	0	0	0;
	806	0.88	0	0	0	1.008	100	1	40.8	0	0	0	0	0	0	0	0	0	0	0	0;
	814	23.28	1.33	6	-9	1.023	100	1	32	1	0	0	0	0	0	0	0	0	0	0	0;
	814	0	0	6	-9	1.023	100	0	32	1	0	0	0	0	0	0	0	0	0	0	0;
	815	23.25	0.73	6	-9	1.024	100	1	32	1	0	0	0	0	0	0	0	0	0	0	0;
	815	23.25	0.73	6	-9	1.024	100	1	32	1	0	0	0	0	0	0	0	0	0	0	0;
	815	21.25	0.73	6	-9	1.024	100	1	32	1	0	0	0	0	0	0	0	0	0	0	0;
	815	23.25	0.73	6	-9	1.024	100	1	32	1	0	0	0	0	0	0	0	0	0	0	0;
	825	0	1.35	3	-3	1.042	100	0	13	0	0	0	0	0	0	0	0	0	0	0	0;
	825	1.16	3	3	-3	1.042	100	1	7	0	0	0	0	0	0	0	0	0	0	0	0;
	828	0	0	0	0	1.059	100	0	2.4	0	0	0	0	0	0	0	0	0	0	0	0;
	829	9.77	-3.27	10	-10	1.032	100	1	27	0	0	0	0	0	0	0	0	0	0	0	0;
	830	0	-2.71	10	-10	0.937	100	0	20	0	0	0	0	0	0	0	0	0	0	0	0;
	832	0	1.34	3.14	-3.43	1.053	100	0	9.8	0	0	0	0	0	0	0	0	0	0	0	0;
...
];

%% branch data
%	fbus	tbus	r	x	b	rateA	rateB	rateC	ratio	angle	status	angmin	angmax
mpc.branch = [
	4644	1	0.005726	0.010482	0	0	0	0	1	0	1	0	0;
	5243	1	0.01284	0.025679	0	0	0	0	1	0	1	0	0;
	1682	2	0.005799	0.010615	0.0075	0	0	0	1	0	1	0	0;
	1673	3	0.134039	0.309398	0.0035	0	0	0	1	0	1	0	0;
	2302	3	0.049131	0.133283	0.0015	0	0	0	1	0	1	0	0;
	694	4	0.025926	0.109136	0.0002	0	0	0	1	0	1	0	0;
	3940	4	0.05	0.126914	0.0006	0	0	0	1	0	1	0	0;
	5043	4	0.02321	0.097407	0.0016	0	0	0	1	0	1	0	0;
	4414	5	0.040564	0.113631	0.0013	0	0	0	1	0	1	0	0;
	2780	6	0.006047	0.020912	0.0222	0	0	0	1	0	1	0	0;
	2781	7	0.012472	0.032099	0.0061	0	0	0	1	0	1	0	0;
	2468	8	0.002607	0.017462	0.0324	540	540	540	1	0	1	0	0;
	471	9	0.053893	0.14258	0.0017	0	0	0	1	0	1	0	0;
	11	10	0.000247	0.001235	0.0005	0	0	0	1	0	1	0	0;
	11	10	0.000247	0.001235	0.0002	0	0	0	1	0	1	0	0;
	30	11	0.039753	0.100988	0.0047	0	0	0	1	0	1	0	0;
	2930	11	0.037654	0.096173	0.001	0	0	0	1	0	1	0	0;
	2180	12	0.014613	0.060721	0.0008	0	0	0	1	0	1	0	0;
	4018	12	0.034064	0.121139	0.0015	0	0	0	1	0	1	0	0;
	4020	12	0.000242	0.000442	0.0004	0	0	0	1	0	1	0	0;
	115	13	2.1e-05	0.000125	0.1386	737	737	737	1	0	1	0	0;
	2336	13	0.000145	0.001877	0.0635	2487	2487	2487	1	0	1	0	0;
	4574	13	0.000319	0.003234	0.0838	1841	1841	1841	1	0	1	0	0;
	116	13	2.1e-05	0.000125	0.1386	737	737	737	1	0	1	0	0;
	1224	14	0.04	0.134198	0.0274	0	0	0	1	0	1	0	0;
	2875	14	0.012222	0.052346	0.0026	0	0	0	1	0	1	0	0;
	4592	14	0.007284	0.045432	0.0024	0	0	0	1	0	1	0	0;
	4950	14	0.059963	0.154222	0.0236	0	0	0	1	0	1	0	0;
	5229	14	0.018025	0.110988	0.0073	0	0	0	1	0	1	0	0;
	2875	14	0.012222	0.052593	0.0032	0	0	0	1	0	1	0	0;
	4592	14	0.007284	0.044938	0.0024	0	0	0	1	0	1	0	0;
	2907	15	0.037541	0.100529	0.0011	0	0	0	1	0	1	0	0;
	4126	15	0.090199	0.211388	0.0023	0	0	0	1	0	1	0	0;
	4454	15	0.09801	0.267574	0	0	0	0	1	0	1	0	0;
	251	16	0.071806	0.191484	0.0019	0	0	0	1	0	1	0	0;
	339	16	0.119174	0.284958	0.0044	0	0	0	1	0	1	0	0;
	5835	17	0.022346	0.061111	0.0029	0	0	0	1	0	1	0	0;
	3728	18	0.009383	0.019753	0	0	0	0	1	0	1	0	0;
	5091	19	0.000252	0.000504	0	0	0	0	1	0	1	0	0;
	3728	20	0.001975	0.004444	0	0	0	0	1	0	1	0	0;
	1353	21	0.036296	0.099012	0.0045	0	0	0	1	0	1	0	0;
	1598	21	0.032716	0.089136	0.0057	0	0	0	1	0	1	0	0;
	1842	22	0.138574	0.351474	0.0058	0	0	0	1	0	1	0	0;
	5020	22	0.094407	0.210456	0.0044	0	0	0	1	0	1	0	0;
	1156	23	0.047115	0.117158	0.001	0	0	0	1	0	1	0	0;
	2705	23	0.039557	0.120937	0.0132	0	0	0	1	0	1	0	0;
	3425	23	0.022676	0.062484	0.0007	0	0	0	1	0	1	0	0;
	144	24	0.064568	0.16716	0.0113	0	0	0	1	0	1	0	0;
	1281	24	0.048605	0.128481	0.0062	0	0	0	1	0	1	0	0;
	491	25	0.004815	0.02963	0.0016	0	0	0	1	0	1	0	0;
	2092	25	0.007309	0.04463	0.0073	0	0	0	1	0	1	0	0;
	611	26	0.034321	0.145802	0.0073	0	0	0	1	0	1	0	0;
	1865	26	0.004815	0.009753	0.0005	0	0	0	1	0	1	0	0;
	2604	26	0.049012	0.133704	0.0063	0	0	0	1	0	1	0	0;
	2923	26	0.04642	0.126543	0.0058	0	0	0	1	0	1	0	0;
	3339	26	0.046296	0.125926	0.006	0	0	0	1	0	1	0	0;
	4629	26	0.053704	0.136753	0.0065	0	0	0	1	0	1	0	0;
	2923	26	0.03358	0.120988	0.0062	0	0	0	1	0	1	0	0;
	534	27	0.006163	0.041067	0.0759	446	446	446	1	0	1	0	0;
	2349	27	0.000652	0.004369	0.0081	558	558	558	1	0	1	0	0;
	2686	28	0.050945	0.131922	0.0015	0	0	0	1	0	1	0	0;
	3893	28	0.058781	0.149005	0.0017	0	0	0	1	0	1	0	0;
	2888	29	0.067019	0.137566	0.0037	0	0	0	1	0	1	0	0;
	3321	29	0.032754	0.088939	0.0039	0	0	0	1	0	1	0	0;
	3321	29	0.030184	0.080096	0.0053	0	0	0	1	0	1	0	0;
	144	30	0.066049	0.187778	0.0099	0	0	0	1	0	1	0	0;
	1553	30	0.065062	0.133704	0.0062	0	0	0	1	0	1	0	0;
	4836	30	0.041728	0.106049	0.005	0	0	0	1	0	1	0	0;
	150	31	0.009574	0.03875	0.0114	0	0	0	1	0	1	0	0;
	3162	31	0.000171	0.000313	0.0002	0	0	0	1	0	1	0	0;
	3693	31	0.034266	0.09423	0.001	0	0	0	1	0	1	0	0;
	4740	31	0.006803	0.028219	0	0	0	0	1	0	1	0	0;
	150	31	0.008566	0.037541	0.0121	0	0	0	1	0	1	0	0;
	3730	32	0.009733	0.034089	0.0185	0	0	0	1	0	1	0	0;
	368	34	0.000277	0.002015	0.003	288	288	288	1	0	1	0	0;
	1016	33	0.00881	0.033995	0.0607	289	289	289	1	0	1	0	0;
	1157	33	0.004642	0.019832	0.0354	255	255	255	1	0	1	0	0;
	2582	34	0.008861	0.03506	0.0623	288	288	288	1	0	1	0	0;
	2706	34	0.006993	0.032869	0.0557	255	255	255	1	0	1	0	0;
	4745	33	0.002173	0.008731	0.0152	0	0	0	1	0	1	0	0;
	4853	34	0.00077	0.003121	0.0051	0	0	0	1	0	1	0	0;
	5670	33	0.004109	0.016138	0.0284	288	288	288	1	0	1	0	0;
	370	35	8.3e-05	0.000907	0.0202	1034	1034	1034	1	0	1	0	0;
	1108	35	0.000552	0.006726	0.0939	1786	1786	1786	1	0	1	0	0;
	2149	35	0.000512	0.008012	0.2455	2462	2462	2462	1	0	1	0	0;
	3135	35	0.001107	0.00918	0.1906	1644	1644	1644	1	0	1	0	0;
	369	36	6.2e-05	0.000741	0.0173	1095	1095	1095	1	0	1	0	0;
	2149	35	0.000512	0.008019	0.2455	2462	2462	2462	1	0	1	0	0;
	2149	36	0.001153	0.013123	0.1841	1433	1433	1433	1	0	1	0	0;
	5228	37	0.055933	0.120685	0.0013	0	0	0	1	0	1	0	0;
	5514	37	0.039053	0.084404	0.001	0	0	0	1	0	1	0	0;
	724	38	0.00252	0.006551	0.0001	0	0	0	1	0	1	0	0;
	1228	39	0.009877	0.042222	0.0021	0	0	0	1	0	1	0	0;
	5809	39	0.024815	0.063086	0.0029	0	0	0	1	0	1	0	0;
	1228	39	0.009877	0.042222	0.0021	0	0	0	1	0	1	0	0;
	2250	40	0.056173	0.142593	0.0066	0	0	0	1	0	1	0	0;
	4592	40	0.034444	0.109012	0.0076	0	0	0	1	0	1	0	0;
	431	41	0.000158	0.000672	0.0719	331	331	331	1	0	1	0	0;
	3954	41	4.5e-05	8.9e-05	0.002	268	268	268	1	0	1	0	0;
	1482	42	0.01096	0.020063	0.009	0	0	0	1	0	1	0	0;
	2766	42	0.002268	0.008818	0.0099	0	0	0	1	0	1	0	0;
	2725	43	0.001481	0.006296	0.0039	0	0	0	1	0	1	0	0;
	3488	44	0.050617	0.137012	0.009	0	0	0	1	0	1	0	0;
	4324	44	0.074326	0.194507	0.0021	0	0	0	1	0	1	0	0;
	5094	45	0.000247	0.000741	0	0	0	0	1	0	1	0	0;
	1084	46	0.049131	0.134039	0.001	0	0	0	1	0	1	0	0;
	2193	46	0.033258	0.090955	0.001	0	0	0	1	0	1	0	0;
	3305	46	0.067437	0.123442	0.001	0	0	0	1	0	1	0	0;
	1084	47	0.037289	0.118166	0.001	0	0	0	1	0	1	0	0;
	5362	48	0.021358	0.057037	0.0005	0	0	0	1	0	1	0	0;
	1222	49	0.071303	0.180902	0.0021	0	0	0	1	0	1	0	0;
	2344	49	0.071554	0.18191	0.0021	0	0	0	1	0	1	0	0;
	471	50	0.028193	0.104535	0.0013	0	0	0	1	0	1	0	0;
	1676	50	0.055404	0.171429	0.01	0	0	0	1	0	1	0	0;
	3554	50	0.010834	0.071554	0.001	0	0	0	1	0	1	0	0;
	4626	50	0.013857	0.030234	0.0003	0	0	0	1	0	1	0	0;
	3554	50	0.011414	0.070648	0.0009	0	0	0	1	0	1	0	0;
	4626	50	0.013757	0.030108	0.0003	0	0	0	1	0	1	0	0;
	1195	51	0.00478	0.028622	0.0547	455	455	455	1	0	1	0	0;
	1196	51	0.00478	0.028583	0.0547	455	455	455	1	0	1	0	0;
	166	52	0.01284	0.032716	0.0015	0	0	0	1	0	1	0	0;
	5488	52	0.014198	0.036049	0.0016	0	0	0	1	0	1	0	0;
	3349	53	0.005291	0.021668	0.0003	0	0	0	1	0	1	0	0;
	2770	54	0.01358	0.047654	0.0023	0	0	0	1	0	1	0	0;
	375	55	0.000257	0.000514	0.0294	0	0	0	1	0	1	0	0;
	2695	56	0.000257	0.002153	0.2147	452	452	452	1	0	1	0	0;
	3427	56	0.000277	0.000869	0.0931	481	481	481	1	0	1	0	0;
	5095	57	0.000756	0.00252	0	0	0	0	1	0	1	0	0;
	3390	58	0.000237	0.00083	0.1863	268	268	268	1	0	1	0	0;
	3566	58	0.000178	0.000612	0.1377	268	268	268	1	0	1	0	0;
	142	59	0.030486	0.076342	0.002	0	0	0	1	0	1	0	0;
	1652	59	0.011086	0.024691	0.0015	0	0	0	1	0	1	0	0;
	2478	60	0.044344	0.170572	0.0021	0	0	0	1	0	1	0	0;
	3526	60	0.036709	0.151776	0.0017	0	0	0	1	0	1	0	0;
	2227	61	0.017788	0.048551	0.0006	0	0	0	1	0	1	0	0;
	2636	61	0.057521	0.145251	0.0017	0	0	0	1	0	1	0	0;
	2047	62	0.014109	0.057949	0.0029	0	0	0	1	0	1	0	0;
	2951	62	0.007055	0.02973	0.0014	0	0	0	1	0	1	0	0;
	373	63	0.024263	0.065911	0.0007	0	0	0	1	0	1	0	0;
	3082	63	0.020912	0.059209	0.0016	0	0	0	1	0	1	0	0;
	145	64	0.002568	0.011753	0.0203	424	424	424	1	0	1	0	0;
	5105	64	0.002568	0.011615	0.0228	290	290	290	1	0	1	0	0;
	4604	65	0.006299	0.033585	0.0599	0	0	0	1	0	1	0	0;
	4604	65	0.006299	0.033661	0.06	0	0	0	1	0	1	0	0;
	1546	66	0.102293	0.226757	0.0025	0	0	0	1	0	1	0	0;
	2291	66	0.177551	0.405291	0.0046	0	0	0	1	0	1	0	0;
	3249	66	0.088264	0.161566	0.0017	0	0	0	1	0	1	0	0;
	3031	67	0.007307	0.014613	0.0002	0	0	0	1	0	1	0	0;
	2193	68	0.043336	0.11867	0.001	0	0	0	1	0	1	0	0;
	2884	68	0.067775	0.139834	0.001	0	0	0	1	0	1	0	0;
	4534	68	0.047367	0.16125	0.0021	0	0	0	1	0	1	0	0;
	5148	68	0.004031	0.016629	0.001	0	0	0	1	0	1	0	0;
	4607	69	0.073066	0.205089	0.0022	0	0	0	1	0	1	0	0;
	5096	70	4.8e-05	8.8e-05	0.0001	0	0	0	1	0	1	0	0;
	2164	71	0.000252	0.00252	0.0008	0	0	0	1	0	1	0	0;
	3145	71	0.030738	0.088687	0.0169	0	0	0	1	0	1	0	0;
	5097	71	0.006551	0.016377	0.0171	0	0	0	1	0	1	0	0;
	3145	71	0.025195	0.07483	0.0204	0	0	0	1	0	1	0	0;
	3747	72	9.9e-05	0.00077	0.078	379	379	379	1	0	1	0	0;
	3747	73	9.9e-05	0.00077	0.077	379	379	379	1	0	1	0	0;
	5105	74	0.000514	0.003437	0.0061	290	290	290	1	0	1	0	0;
	5125	74	0.005476	0.036879	0.1255	522	522	522	1	0	1	0	0;
	145	74	0.000514	0.003457	0.0061	418	418	418	1	0	1	0	0;
	4961	75	0.017531	0.046914	0.0023	0	0	0	1	0	1	0	0;
	2083	75	0.005309	0.014321	0.0006	0	0	0	1	0	1	0	0;
	3083	76	0.003477	0.01118	0.0187	304	304	304	1	0	1	0	0;
	3833	76	0.000612	0.003121	0.0152	270	270	270	1	0	1	0	0;
	2343	77	0.013857	0.035525	0.0004	0	0	0	1	0	1	0	0;
	242	78	0.002771	0.008314	0.0083	0	0	0	1	0	1	0	0;
	4559	78	0.000151	0.000302	0	0	0	0	1	0	1	0	0;
	629	79	0.010758	0.02187	0.0071	0	0	0	1	0	1	0	0;
	1870	79	0.003779	0.014613	0.0198	0	0	0	1	0	1	0	0;
	2411	79	0.008314	0.017057	0.024	0	0	0	1	0	1	0	0;
	4078	79	0.000252	0.001764	0.0043	0	0	0	1	0	1	0	0;
	629	79	0.010758	0.02187	0.0071	0	0	0	1	0	1	0	0;
	4077	79	0.000302	0.001562	0.0037	0	0	0	1	0	1	0	0;
	4079	81	2.4e-05	0.000144	0.0213	701	701	701	1	0	1	0	0;
	4079	80	7.1e-05	0.000162	0.0162	251	251	251	1	0	1	0	0;
	674	82	0.068027	0.173091	0.002	0	0	0	1	0	1	0	0;
	797	82	0.027211	0.068783	0.001	0	0	0	1	0	1	0	0;
	2072	82	0.03099	0.202822	0.002	0	0	0	1	0	1	0	0;
	3485	83	0.000257	0.001165	0.002	405	405	405	1	0	1	0	0;
	2128	84	0.045603	0.11741	0.001	0	0	0	1	0	1	0	0;
	3803	84	0.008566	0.024691	0	0	0	0	1	0	1	0	0;
	5100	85	0.047317	0.131595	0.0015	0	0	0	1	0	1	0	0;
	2810	86	0.040494	0.128889	0.0064	0	0	0	1	0	1	0	0;
	3512	86	0.037778	0.097037	0.0045	0	0	0	1	0	1	0	0;
	3772	87	0.032071	0.058705	0.0006	0	0	0	1	0	1	0	0;
	4348	87	0.062887	0.204157	0.002	0	0	0	1	0	1	0	0;
	3772	87	0.032026	0.058624	0.0006	0	0	0	1	0	1	0	0;
	1617	88	0.075838	0.224742	0.0027	0	0	0	1	0	1	0	0;
	1706	88	0.028471	0.089695	0.001	0	0	0	1	0	1	0	0;
	3644	88	0.080373	0.255732	0.003	0	0	0	1	0	1	0	0;
	5558	88	0.000252	0.000504	0	0	0	0	1	0	1	0	0;
	2498	89	0.033531	0.087235	0.0166	0	0	0	1	0	1	0	0;
	4228	89	0.03037	0.08321	0.0039	0	0	0	1	0	1	0	0;
	5101	90	0.000444	0.001136	0	0	0	0	1	0	1	0	0;
	3728	91	0.057284	0.130864	0	0	0	0	1	0	1	0	0;
	647	92	0.054749	0.157445	0.0027	0	0	0	1	0	1	0	0;
	4057	92	0.038549	0.103049	0.0012	0	0	0	1	0	1	0	0;
...
];

%%-----  OPF Data  -----%%
%% generator cost data
%	1	startup	shutdown	n	x1	y1	...	xn	yn
%	2	startup	shutdown	n	c(n-1)	...	c0
mpc.gencost = [
	2	0	0	3	0	2	0;
	2	0	0	3	0	2	0;
	2	0	0	3	0	1	0;
	2	0	0	3	0	2	0;
	2	0	0	3	0	2	0;
	2	0	0	3	0	1	0;
	2	0	0	3	0	2	0;
	2	0	0	3	0	2	0;
	2	0	0	3	0	2	0;
	2	0	0	3	0	1	0;
	2	0	0	3	0	1	0;
	2	0	0	3	0	2	0;
	2	0	0	3	0	2	0;
	2	0	0	3	0	1	0;
	2	0	0	3	0	2	0;
	2	0	0	3	0	1	0;
	2	0	0	3	0	1	0;
	2	0	0	3	0	2	0;
	2	0	0	3	0	2	0;
	2	0	0	3	0	1	0;
	2	0	0	3	0	1	0;
	2	0	0	3	0	1	0;
	2	0	0	3	0	2	0;
	2	0	0	3	0	1	0;
	2	0	0	3	0	1	0;
	2	0	0	3	0	1	0;
	2	0	0	3	0	1	0;
	2	0	0	3	0	1	0;
	2	0	0	3	0	1	0;
	2	0	0	3	0	1	0;
	2	0	0	3	0	2	0;
	2	0	0	3	0	2	0;
	2	0	0	3	0	2	0;
	2	0	0	3	0	2	0;
	2	0	0	3	0	1	0;
	2	0	0	3	0	2	0;
	2	0	0	3	0	1	0;
	2	0	0	3	0	2	0;
	2	0	0	3	0	2	0;
	2	0	0	3	0	2	0;
	2	0	0	3	0	2	0;
	2	0	0	3	0	2	0;
	2	0	0	3	0	2	0;
	2	0	0	3	0	1	0;
	2	0	0	3	0	1	0;
	2	0	0	3	0	1	0;
	2	0	0	3	0	2	0;
	2	0	0	3	0	1	0;
	2	0	0	3	0	1	0;
	2	0	0	3	0	1	0;
	2	0	0	3	0	2	0;
	2	0	0	3	0	1	0;
	2	0	0	3	0	2	0;
	2	0	0	3	0	2	0;
	2	0	0	3	0	2	0;
	2	0	0	3	0	2	0;
	2	0	0	3	0	2	0;
	2	0	0	3	0	2	0;
	2	0	0	3	0	1	0;
	2	0	0	3	0	1	0;
	2	0	0	3	0	2	0;
	2	0	0	3	0	2	0;
	2	0	0	3	0	2	0;
	2	0	0	3	0	2	0;
	2	0	0	3	0	1	0;
	2	0	0	3	0	1	0;
	2	0	0	3	0	1	0;
	2	0	0	3	0	2	0;
	2	0	0	3	0	2	0;
	2	0	0	3	0	1	0;
	2	0	0	3	0	2	0;
	2	0	0	3	0	2	0;
	2	0	0	3	0	1	0;
	2	0	0	3	0	1	0;
	2	0	0	3	0	2	0;
	2	0	0	3	0	2	0;
	2	0	0	3	0	2	0;
	2	0	0	3	0	1	0;
	2	0	0	3	0	2	0;
	2	0	0	3	0	2	0;
	2	0	0	3	0	1	0;
	2	0	0	3	0	1	0;
	2	0	0	3	0	1	0;
	2	0	0	3	0	2	0;
	2	0	0	3	0	1	0;
	2	0	0	3	0	1	0;
	2	0	0	3	0	2	0;
	2	0	0	3	0	2	0;
	2	0	0	3	0	2	0;
	2	0	0	3	0	2	0;
	2	0	0	3	0	1	0;
	2	0	0	3	0	1	0;
	2	0	0	3	0	1	0;
	2	0	0	3	0	1	0;
	2	0	0	3	0	2	0;
	2	0	0	3	0	2	0;
	2	0	0	3	0	2	0;
	2	0	0	3	0	2	0;
	2	0	0	3	0	2	0;
	2	0	0	3	0	2	0;
	2	0	0	3	0	2	0;
	2	0	0	3	0	2	0;
	2	0	0	3	0	1	0;
	2	0	0	3	0	2	0;
	2	0	0	3	0	2	0;
	2	0	0	3	0	1	0;
	2	0	0	3	0	1	0;
	2	0	0	3	0	1	0;
	2	0	0	3	0	1	0;
	2	0	0	3	0	2	0;
	2	0	0	3	0	1	0;
	2	0	0	3	0	1	0;
	2	0	0	3	0	1	0;
	2	0	0	3	0	1	0;
	2	0	0	3	0	1	0;
	2	0	0	3	0	1	0;
	2	0	0	3	0	2	0;
	2	0	0	3	0	2	0;
	2	0	0	3	0	2	0;
	2	0	0	3	0	1	0;
	2	0	0	3	0	2	0;
	2	0	0	3	0	1	0;
	2	0	0	3	0	1	0;
	2	0	0	3	0	1	0;
	2	0	0	3	0	1	0;
	2	0	0	3	0	2	0;
	2	0	0	3	0	1	0;
	2	0	0	3	0	2	0;
	2	0	0	3	0	2	0;
	2	0	0	3	0	1	0;
	2	0	0	3	0	1	0;
	2	0	0	3	0	2	0;
	2	0	0	3	0	1	0;
	2	0	0	3	0	1	0;
	2	0	0	3	0	1	0;
	2	0	0	3	0	1	0;
	2	0	0	3	0	2	0;
	2	0	0	3	0	1	0;
	2	0	0	3	0	1	0;
	2	0	0	3	0	1	0;
	2	0	0	3	0	2	0;
	2	0	0	3	0	1	0;
	2	0	0	3	0	1	0;
	2	0	0	3	0	1	0;
	2	0	0	3	0	1	0;
	2	0	0	3	0	1	0;
	2	0	0	3	0	1	0;
	2	0	0	3	0	1	0;
	2	0	0	3	0	1	0;
	2	0	0	3	0	1	0;
	2	0	0	3	0	1	0;
	2	0	0	3	0	1	0;
	2	0	0	3	0	1	0;
	2	0	0	3	0	1	0;
	2	0	0	3	0	2	0;
	2	0	0	3	0	1	0;
	2	0	0	3	0	1	0;
	2	0	0	3	0	1	0;
	2	0	0	3	0	1	0;
	2	0	0	3	0	2	0;
	2	0	0	3	0	1	0;
	2	0	0	3	0	1	0;
	2	0	0	3	0	1	0;
	2	0	0	3	0	1	0;
	2	0	0	3	0	1	0;
	2	0	0	3	0	1	0;
	2	0	0	3	0	2	0;
	2	0	0	3	0	2	0;
	2	0	0	3	0	2	0;
	2	0	0	3	0	2	0;
	2	0	0	3	0	1	0;
	2	0	0	3	0	1	0;
	2	0	0	3	0	2	0;
	2	0	0	3	0	1	0;
	2	0	0	3	0	2	0;
	2	0	0	3	0	2	0;
	2	0	0	3	0	2	0;
	2	0	0	3	0	1	0;
	2	0	0	3	0	2	0;
	2	0	0	3	0	2	0;
	2	0	0	3	0	2	0;
	2	0	0	3	0	1	0;
	2	0	0	3	0	1	0;
	2	0	0	3	0	1	0;
	2	0	0	3	0	1	0;
	2	0	0	3	0	1	0;
	2	0	0	3	0	1	0;
	2	0	0	3	0	1	0;
	2	0	0	3	0	1	0;
	2	0	0	3	0	2	0;
	2	0	0	3	0	1	0;
	2	0	0	3	0	1	0;
	2	0	0	3	0	1	0;
	2	0	0	3	0	1	0;
	2	0	0	3	0	2	0;
	2	0	0	3	0	1	0;
	2	0	0	3	0	2	0;
	2	0	0	3	0	1	0;
	2	0	0	3	0	2	0;
	2	0	0	3	0	2	0;
...
];
